Casos/pglib_opf_case30_ieee/datosLineas.csv
fbus;tbus;r;x;b;rateA;rateB;rateC;ratio;angle;status;angmin;angmax
1;2;0.0192;0.0575;0.0528;138;138;138;0;0;1;-30;30
1;3;0.0452;0.1652;0.0408;152;152;152;0;0;1;-30;30
2;4;0.057;0.1737;0.0368;139;139;139;0;0;1;-30;30
3;4;0.0132;0.0379;0.0084;135;135;135;0;0;1;-30;30
2;5;0.0472;0.1983;0.0418;144;144;144;0;0;1;-30;30
2;6;0.0581;0.1763;0.0374;139;139;139;0;0;1;-30;30
4;6;0.0119;0.0414;0.009;148;148;148;0;0;1;-30;30
5;7;0.046;0.116;0.0204;127;127;127;0;0;1;-30;30
6;7;0.0267;0.082;0.017;140;140;140;0;0;1;-30;30
6;8;0.012;0.042;0.009;148;148;148;0;0;1;-30;30
6;9;0;0.208;0;142;142;142;0.978;0;1;-30;30
6;10;0;0.556;0;53;53;53;0.969;0;1;-30;30
9;11;0;0.208;0;142;142;142;1;0;1;-30;30
9;10;0;0.11;0;267;267;267;1;0;1;-30;30
4;12;0;0.256;0;115;115;115;0.932;0;1;-30;30
12;13;0;0.14;0;210;210;210;1;0;1;-30;30
12;14;0.1231;0.2559;0;29;29;29;0;0;1;-30;30
12;15;0.0662;0.1304;0;29;29;29;0;0;1;-30;30
12;16;0.0945;0.1987;0;30;30;30;0;0;1;-30;30
14;15;0.221;0.1997;0;20;20;20;0;0;1;-30;30
16;17;0.0524;0.1923;0;38;38;38;0;0;1;-30;30
15;18;0.1073;0.2185;0;29;29;29;0;0;1;-30;30
18;19;0.0639;0.1292;0;29;29;29;0;0;1;-30;30
19;20;0.034;0.068;0;29;29;29;0;0;1;-30;30
10;20;0.0936;0.209;0;30;30;30;0;0;1;-30;30
10;17;0.0324;0.0845;0;33;33;33;0;0;1;-30;30
10;21;0.0348;0.0749;0;30;30;30;0;0;1;-30;30
10;22;0.0727;0.1499;0;29;29;29;0;0;1;-30;30
21;22;0.0116;0.0236;0;29;29;29;0;0;1;-30;30
15;23;0.1;0.202;0;29;29;29;0;0;1;-30;30
22;24;0.115;0.179;0;26;26;26;0;0;1;-30;30
23;24;0.132;0.27;0;29;29;29;0;0;1;-30;30
24;25;0.1885;0.3292;0;27;27;27;0;0;1;-30;30
25;26;0.2544;0.38;0;25;25;25;0;0;1;-30;30
25;27;0.1093;0.2087;0;28;28;28;0;0;1;-30;30
28;27;0;0.396;0;75;75;75;0.968;0;1;-30;30
27;29;0.2198;0.4153;0;28;28;28;0;0;1;-30;30
27;30;0.3202;0.6027;0;28;28;28;0;0;1;-30;30
29;30;0.2399;0.4533;0;28;28;28;0;0;1;-30;30
8;28;0.0636;0.2;0.0428;140;140;140;0;0;1;-30;30
6;28;0.0169;0.0599;0.013;149;149;149;0;0;1;-30;30
